*Heading
** Job name: 2Dtest Model name: Model-1
** Generated by: Abaqus/CAE Unofficial Packaging Version
*Preprint, echo=NO, model=NO, history=NO, contact=NO
**
** PARTS
**
*Part, name=Part-1
*End Part
**  
**
** ASSEMBLY
**
*Assembly, name=Assembly
**  
*Instance, name=Part-1-1, part=Part-1
*Node
      1,           1.,           1.
      2,          0.5,           1.
      3,           0.,           1.
      4,           1.,          0.5
      5,          0.5,          0.5
      6,           0.,          0.5
      7,           1.,           0.
      8,          0.5,           0.
      9,           0.,           0.
*Element, type=CPS4R
1, 1, 2, 5, 4
2, 2, 3, 6, 5
3, 4, 5, 8, 7
4, 5, 6, 9, 8
*Nset, nset=Set-1, generate
 1,  9,  1
*Elset, elset=Set-1, generate
 1,  4,  1
** Section: Section-1
*Solid Section, elset=Set-1, material=Material-1
,
*End Instance
**  
*Nset, nset=Set-1, instance=Part-1-1, generate
 3,  9,  3
*Elset, elset=Set-1, instance=Part-1-1
 2, 4
*Nset, nset=Set-2, instance=Part-1-1, generate
 7,  9,  1
*Elset, elset=Set-2, instance=Part-1-1
 3, 4
*Nset, nset=Set-3, instance=Part-1-1, generate
 1,  3,  1
*Elset, elset=Set-3, instance=Part-1-1
 1, 2
*End Assembly
** 
** MATERIALS
** 
*Material, name=Material-1
*Elastic
 2.06e+11, 0.3
** 
** BOUNDARY CONDITIONS
** 
** Name: BC-1 Type: ‘ÎÌ/”½‘ÎÌ/Š®‘SŒÅ’è
*Boundary
Set-1, XSYMM
** Name: BC-2 Type: ‘ÎÌ/”½‘ÎÌ/Š®‘SŒÅ’è
*Boundary
Set-2, YSYMM
** ----------------------------------------------------------------
** 
** STEP: Step-1
** 
*Step, name=Step-1, nlgeom=NO
*Static
1., 1., 1e-05, 1.
** 
** BOUNDARY CONDITIONS
** 
** Name: BC-3 Type: •ÏˆÊ/‰ñ“]
*Boundary
Set-3, 2, 2, 0.1
** 
** OUTPUT REQUESTS
** 
*Restart, write, frequency=0
** 
** FIELD OUTPUT: F-Output-1
** 
*Output, field
*Node Output
RF, U
*Element Output, directions=YES
LE, MVF, PEEQ, S
** 
** HISTORY OUTPUT: H-Output-1
** 
*Output, history, variable=PRESELECT
*End Step
